7
2,3-didehydrofuran triplet structure optimized @ wB97X-D/cc-pVDZ w/ UKS reference
O       0.9098680183     0.6615923135    -0.0000000000
C      -0.4197636888     0.9439525548     0.0000000000
C      -1.1963904257    -0.2054651173     0.0000000000
C      -0.2315762726    -1.2029504530     0.0000000000
C       1.1298994968    -0.7075244399    -0.0000000000
H      -0.6910116158     1.9994280834     0.0000000000
H      -2.2809471886    -0.2602418591     0.0000000000
