8
2,3-didehydropyrrole triplet structure optimized @ wB97X-D/cc-pVDZ w/ UKS reference
C       0.7519244133    -1.0277248659    -0.0578526132
C      -0.6390995245    -1.1029108488     0.0189516077
C      -1.1944836848     0.1858320588     0.0076440555
C      -0.0998451056     1.0454754912     0.0122360200
N       1.0590005447     0.3003963104     0.0623657749
H       1.9786951331     0.6887812213    -0.1015649074
H      -0.0654010840     2.1191956058    -0.1656208139
H      -2.2372744526     0.4852179881    -0.0552491234
