8
2,3-didehydropyrrole singlet structure optimized @ BS-UCCSD/cc-pVDZ
C         0.7942631381   -0.9581000425    0.0000000000
C        -0.5153137513   -1.1862939235    0.0000000000
C        -1.2083356029    0.0806806247    0.0000000000
C        -0.2014502175    1.0387992254    0.0000000000
N         1.0330862232    0.3957404373    0.0000000000
H         1.9371805661    0.8486116488    0.0000000000
H        -0.2660204245    2.1288029542    0.0000000000
H        -2.2818936407    0.2683140890    0.0000000000
