7
2,3-didehydrothiophene singlet structure optimized @ wB97X-D/cc-pVDZ w/ BS-UKS reference
S       1.0326530391    -0.3766940450    -0.0000000000
C       0.5936166253     1.3249637018     0.0000000000
C      -0.6502009619     1.0950245386     0.0000000000
C      -1.5185177048    -0.0132372482     0.0000000000
H      -2.6024511416    -0.0541632330     0.0000000000
C      -0.6108572338    -1.0408540547    -0.0000000000
H      -0.8042418331    -2.1141136718    -0.0000000000
