7
2,4-didehydrofuran singlet structure optimized @ wB97X-D/cc-pVDZ w/ BS-UKS reference
O       0.9307143500    -0.7328808051    -0.0000000000
C       0.9593426164     0.6255268696     0.0000000000
C      -0.3455529646     1.0165478010     0.0000000000
C      -1.3557346397     0.0535689084     0.0000000000
C      -0.4105762141    -0.9140702835    -0.0000000000
H      -2.4362198840     0.0204069426     0.0000000000
H       1.9056322967     1.1531997255     0.0000000000
