8
2,4-didehydropyrrole triplet structure optimized @ wB97X-D/cc-pVDZ w/ UKS reference
C      -0.4017974117    -1.0826126890     0.0648921865
C      -1.2781450520    -0.0068767987     0.0016750313
C      -0.4283068568     1.1198751394    -0.0053223738
C       0.8879389888     0.7348318927    -0.0019789654
N       0.8815143701    -0.6555156856    -0.0659394369
H       1.7013434148    -1.2376582790     0.0383250348
H       1.8087572211     1.2870700831     0.1601458184
H      -2.3588392364    -0.0521072718    -0.0924900666
