8
2,5-didehydropyrrole triplet structure optimized @ wB97X-D/cc-pVDZ w/ UKS reference
C       0.3904633281    -1.1087440361    -0.0572386191
C      -0.9627770640    -0.6941321409     0.0446708307
C      -0.9627868120     0.6938529054    -0.0456119952
C       0.3902537545     1.1093895363     0.0577844979
N       1.1851304042    -0.0001897714    -0.0002238765
H      -1.8102947057    -1.3677021559     0.1441253351
H      -1.8114632172     1.3668558660    -0.1407301817
H       2.1949258539    -0.0000228979     0.0005436960
