7
2,5-didehydrothiophene singlet structure optimized @ wB97X-D/cc-pVDZ w/ BS-UKS reference
S       0.0000000000     0.0000000000     1.2777406378
C       1.0801095850     0.0000000000    -0.0097824679
C       0.7081920398     0.0000000000    -1.3341201003
H       1.4191101495     0.0000000000    -2.1585090243
C      -0.7081920398    -0.0000000000    -1.3341201003
H      -1.4191101495    -0.0000000000    -2.1585090243
C      -1.0801095850    -0.0000000000    -0.0097824679
