7
3,4-didehydrofuran triplet structure optimized @ wB97X-D/cc-pVDZ w/ UKS reference
O      -0.0000000000    -0.0000000000     1.1038145126
C      -1.0683333363    -0.0000000000     0.2422611101
C      -0.6733272700    -0.0000000000    -1.1029095802
C       0.6733272700     0.0000000000    -1.1029095802
C       1.0683333363     0.0000000000     0.2422611101
H      -2.0340813516    -0.0000000000     0.7486327706
H       2.0340813516     0.0000000000     0.7486327706
