8
3,4-didehydropyrrole singlet structure optimized @ wB97X-D/cc-pVDZ w/ BS-UKS reference
C       1.1377106110    -0.0000000000     0.2113952504
C       0.6359911239     0.0000000000    -1.0739832333
C      -0.6359911239     0.0000000000    -1.0739832333
C      -1.1377106110    -0.0000000000     0.2113952504
N      -0.0000000000    -0.0000000000     1.0071198178
H      -0.0000000000    -0.0000000000     2.0218624118
H       2.1345115462    -0.0000000000     0.6396773291
H      -2.1345115462    -0.0000000000     0.6396773291
