8
3,4-didehydropyrrole triplet structure optimized @ wB97X-D/cc-pVDZ w/ UKS reference
C      -1.1016067519     0.0000000000     0.2269216059
C      -0.6692646307     0.0000000000    -1.1300630641
C       0.6692646307     0.0000000000    -1.1300630641
C       1.1016067519     0.0000000000     0.2269216059
N      -0.0000000000     0.0000000000     1.0602864429
H      -0.0000000000     0.0000000000     2.0734600265
H      -2.0997243367     0.0000000000     0.6711161857
H       2.0997243367     0.0000000000     0.6711161857
