7
3,4-didehydrothiophene singlet structure optimized @ wB97X-D/cc-pVDZ w/ BS-UKS reference
S      -0.0000000000     0.0000000000     1.0836764237
C       1.2735806729     0.0000000000    -0.1355794009
C       0.6363300673     0.0000000000    -1.3357272475
C      -0.6363300673     0.0000000000    -1.3357272475
C      -1.2735806729     0.0000000000    -0.1355794009
H       2.3211515938     0.0000000000     0.1584285005
H      -2.3211515938     0.0000000000     0.1584285005
