7
3,4-didehydrothiophene triplet structure optimized @ wB97X-D/cc-pVDZ w/ UKS reference
S       0.0000000000     0.0000000000     1.0837384928
C       1.2679858267     0.0000000000    -0.1221244036
C       0.7151231709     0.0000000000    -1.3530786983
C      -0.7151231709     0.0000000000    -1.3530786983
C      -1.2679858267     0.0000000000    -0.1221244036
H       2.3127238707     0.0000000000     0.1813106693
H      -2.3127238707     0.0000000000     0.1813106693
