9
Furan singlet structure optimized @ wB97X-D/cc-pVDZ with RKS reference
O          0.00000       -1.15522        0.00003
C         -1.08833       -0.34947       -0.00002
C         -0.71783        0.95865        0.00001
C          0.71783        0.95866        0.00001
C          1.08833       -0.34946       -0.00002
H         -2.04895       -0.85380       -0.00005
H         -1.37994        1.81954        0.00001
H          1.37994        1.81954        0.00001
H          2.04895       -0.85379       -0.00005
