9
Thiophene singlet structure optimized @ wB97X-D/cc-pVDZ with RKS reference
S          1.19498        0.00004        0.00000
C         -0.00853       -0.00007       -1.23900
C         -1.27008        0.00003       -0.71443
C         -1.27008        0.00003        0.71443
C         -0.00853       -0.00007        1.23900
H          0.28459       -0.00012       -2.28666
H         -2.17279        0.00005       -1.32426
H         -2.17279        0.00005        1.32426
H          0.28459       -0.00012        2.28666
